*MODEL INPUT FILE            B     1     1     1   999     0
*FILES              
MODEL          CRGRO046
FILEX          UYSB1082.SNX                                                                                 
FILEA          UYSB1082.SNA                                                                                 
FILET          UYSB1082.SNT                                                                                 
SPECIES        SBGRO046.SPE                                                                                 
ECOTYPE        SBGRO046.ECO                                                                                 
CULTIVAR       SBGRO046.CUL                                                                                 
PESTS          SBGRO046.PST C:\DSSAT46\PEST\                                                                
SOILS          UY.SOL                                                                                       
WEATHER        UYTA8801.WTH                                                                                 
OUTPUT         OVERVIEW
*SIMULATION CONTROL 
                  26     1     S 1988316  2150 15102000                 
                   Y     Y     Y     N     N     N     N     N     M
                   M     M     E     R     S     C     R     1     G     S     2     D
                   R     A     D     N     M
                   N     Y     Y     1     Y     N     Y     Y     N     N     Y     N     N
!AUTOMATIC MANAGEM  
               1966289 1966289   40.  100.   30.   40.   10.
                 30.   50.  100. GS000 IR001  10.0 0.800
                 30.   50.   25. FE001 GS000
                100.     1   20.
                     0 2000289  100.    0.
*EXP.DETAILS        
  1UYSB1082 SN late to create DSS                                          
*TREATMENTS         
  1 1 1 0 UYSB                     
*CULTIVARS          
   SB UY0141 GM 4 URUGUAY    
*FIELDS             
   UYTA     UYTA8801   0.0  -99.   -99  -99. 100.0   -99 LS     -99. UYSS1H0806
         -99.00000       -99.00000    -99.00               1.0  100.   1.0 -99.0           0
*INITIAL CONDITIONS 
   SB    1988318     0     0  1.00  1.00   0.0     0  0.00  0.00  100.    0.
      5. 0.053  1.50  5.00
     15. 0.053  1.50  5.00
     30. 0.053  1.50  5.00
     60. 0.069  1.50 0.200
     90. 0.069  1.50 0.200
    110. 0.148  1.50   0.0
    123. 0.249  1.50   0.0
    150. 0.286  1.50   0.0
    167. 0.248  1.50   0.0
    185. 0.248  1.50   0.0
    235. 0.213  1.50   0.0
    280. 0.177  1.50   0.0
*PLANTING DETAILS   
   1988319     -99   7.0   7.0     S     R   15.  -99.   2.5  -99.  -99. -99.0 -99.0 -99.0
*IRRIGATION         
   1.000    0.    0.    0. GS000 IR001   0.0
*FERTILIZERS        
        12 FE001 AP001    5.   12.  -99.  -99.  -99.  -99.   -99
*RESIDUES           
*CHEMICALS          
*TILLAGE            
*ENVIRONMENT        
*HARVEST            
*SOIL               
 UYSS1H0806         UYID LS     -99.  H08-06    SNIA SANDY NORTH RIVERA SHALLOW        
 UYID        URUG        -34.000 -57.000 UYID                                              
 UY     0.12  10.0  0.50    1.  1.00  1.00 -99.0 -99.0 -99.0 -99  
    5.       0.027 0.116 0.367 1.000  7.59  1.52 0.460   8.6   2.9 -99.0 0.040  5.50  4.40  2.10-99.00
   15.       0.027 0.116 0.367 1.000  7.59  1.52 0.460   8.6   2.9 -99.0 0.040  5.50  4.40  2.10-99.00
   30.       0.027 0.116 0.367 1.000  7.59  1.52 0.460   8.6   2.9 -99.0 0.040  5.50  4.40  2.10-99.00
   60.       0.044 0.130 0.372 0.000  4.86  1.50 0.520  11.9   6.9 -99.0 0.050  5.50  4.30  3.20-99.00
   90.       0.044 0.130 0.372 0.000  4.86  1.50 0.520  11.9   6.9 -99.0 0.050  5.50  4.30  3.20-99.00
  110.       0.061 0.148 0.379 0.000  2.94  1.49 0.400  14.8  14.9 -99.0 0.040  5.40  4.20  3.40-99.00
  123.       0.153 0.249 0.415 0.000 0.130  1.47 0.580  39.0   5.0 -99.0 0.050  5.20  4.00  9.40-99.00
  150.       0.206 0.286 0.428 0.000 .0200  1.43 0.460  49.5   4.5 -99.0 0.040  5.20  3.90 10.90-99.00
  167.       0.157 0.248 0.415 0.000 0.100  1.48 0.460  40.3   3.5 -99.0 0.040  5.20  3.90  9.10-99.00
  185.       0.157 0.248 0.415 0.000 0.100  1.48 0.460  40.3   3.5 -99.0 0.040  5.20  3.90  9.10-99.00
  235.       0.130 0.213 0.402 0.000 0.290  1.52 0.170  34.1   4.0 -99.0 0.020  5.10  4.00  7.20-99.00
  280.       0.093 0.177 0.389 0.000  1.11  1.52 0.230  24.6   5.4 -99.0 0.020  5.10  4.00  5.30-99.00
                    
    5.  0.00   0.0   0.0 -99.0 -99.0 -99.0 -99.0 -99.0   0.0 -99.0-99.00   0.3   0.2 -99.0 -99.0   0.5  -99.
   15.  0.00   0.0   0.0 -99.0 -99.0 -99.0 -99.0 -99.0   0.0 -99.0-99.00   0.3   0.2 -99.0 -99.0   0.5  -99.
   30.  0.00   0.0   0.0 -99.0 -99.0 -99.0 -99.0 -99.0   0.0 -99.0-99.00   0.3   0.2 -99.0 -99.0   0.5  -99.
   60.  0.00   0.0   0.0 -99.0 -99.0 -99.0 -99.0 -99.0   0.0 -99.0-99.00   0.1   0.2 -99.0 -99.0   0.4  -99.
   90.  0.00   0.0   0.0 -99.0 -99.0 -99.0 -99.0 -99.0   0.0 -99.0-99.00   0.1   0.2 -99.0 -99.0   0.4  -99.
  110.  0.00   0.0   0.0 -99.0 -99.0 -99.0 -99.0 -99.0   0.0 -99.0-99.00   0.3   0.2 -99.0 -99.0   0.7  -99.
  123.  0.00   0.0   0.0 -99.0 -99.0 -99.0 -99.0 -99.0   0.0 -99.0-99.00   0.9   0.2 -99.0 -99.0   2.0  -99.
  150.  0.00   0.0   0.0 -99.0 -99.0 -99.0 -99.0 -99.0   0.0 -99.0-99.00   0.7   0.2 -99.0 -99.0   1.8  -99.
  167.  0.00   0.0   0.0 -99.0 -99.0 -99.0 -99.0 -99.0   0.0 -99.0-99.00   0.7   0.2 -99.0 -99.0   1.2  -99.
  185.  0.00   0.0   0.0 -99.0 -99.0 -99.0 -99.0 -99.0   0.0 -99.0-99.00   0.7   0.2 -99.0 -99.0   1.2  -99.
  235.  0.00   0.0   0.0 -99.0 -99.0 -99.0 -99.0 -99.0   0.0 -99.0-99.00   0.4   0.3 -99.0 -99.0   0.9  -99.
  280.  0.00   0.0   0.0 -99.0 -99.0 -99.0 -99.0 -99.0   0.0 -99.0-99.00   0.5   0.2 -99.0 -99.0   0.8  -99.
                    
    5.-99.00-99.00-99.00-99.00
   15.-99.00-99.00-99.00-99.00
   30.-99.00-99.00-99.00-99.00
   60.-99.00-99.00-99.00-99.00
   90.-99.00-99.00-99.00-99.00
  110.-99.00-99.00-99.00-99.00
  123.-99.00-99.00-99.00-99.00
  150.-99.00-99.00-99.00-99.00
  167.-99.00-99.00-99.00-99.00
  185.-99.00-99.00-99.00-99.00
  235.-99.00-99.00-99.00-99.00
  280.-99.00-99.00-99.00-99.00
*CULTIVAR           
UY0141 GM 4 URUGUAY     INDETE 13.39 0.294 20.80  7.00 18.00 36.00 24.00 1.030 375.0 180.0  1.00 0.200 26.00  1.70 10.00  77.0 0.405 0.205
