*MODEL INPUT FILE            B     1     1     1   999     0
*FILES              
MODEL          MZCER046
FILEX          UYMZ1131.SNX                                                                                 
FILEA          UYMZ1131.SNA                                                                                 
FILET          UYMZ1131.SNT                                                                                 
SPECIES        MZCER046.SPE                                                                                 
ECOTYPE        MZCER046.ECO                                                                                 
CULTIVAR       MZCER046.CUL                                                                                 
PESTS          MZCER046.PST C:\DSSAT46\PEST\                                                                
SOILS          UY.SOL                                                                                       
WEATHER        UYTA0001.WTH                                                                                 
OUTPUT         OVERVIEW
*SIMULATION CONTROL 
                  11     1     S 2000001  2150 15102000                 
                   Y     Y     N     N     N     N     N     N     M
                   M     M     E     R     S     C     R     1     G     S     2     D
                   R     A     N     N     M
                   N     Y     Y     1     Y     N     Y     Y     N     N     Y     N     N
!AUTOMATIC MANAGEM  
               1966289 1966289   40.  100.   30.   40.   10.
                 30.   50.  100. GS000 IR001  10.0 0.800
                 30.   50.   25. FE001 GS000
                100.     1   20.
                     0 2000289  100.    0.
*EXP.DETAILS        
  1UYMZ1131 SN late to create DSS                                          
*TREATMENTS         
  1 1 1 0 UYMZ                     
*CULTIVARS          
   MZ UY0372 CLARGO UY       
*FIELDS             
   UYTA     UYTA0001   0.0  -99.   -99  -99. 100.0   -99 yLoam  -99. UYSN4M24L2
         -99.00000       -99.00000    -99.00               1.0  100.   1.0 -99.0           0
*INITIAL CONDITIONS 
   MZ    2000003     0     0  1.00  1.00   0.0     0  0.00  0.00  100.    0.
      5. 0.167  1.50  15.0
     15. 0.167  1.50  15.0
     22. 0.167  1.50  15.0
     37. 0.236  1.50  15.0
     51. 0.236  1.50  15.0
     66. 0.236  1.50  15.0
     76. 0.306  1.50   0.0
     86. 0.306  1.50   0.0
    100. 0.284  1.50   0.0
*PLANTING DETAILS   
   2000004     -99   7.0   7.0     S     R   15.  -99.   2.5  -99.  -99. -99.0 -99.0 -99.0
*IRRIGATION         
   1.000    0.    0.    0. GS000 IR001   0.0
*FERTILIZERS        
*RESIDUES           
*CHEMICALS          
*TILLAGE            
*ENVIRONMENT        
*HARVEST            
*SOIL               
 UYSN4M24L2  UYID     Cl yLoam  -99. LA_CAROLINA_BRUNOSOL_(LCb)_Brun_E_Ti_LAc_V_Cultiva
 UYID        URUG        -34.000 -57.000 UYID                                              
 -99    0.12  10.0  0.25    1.  1.00  1.00 -99   -99   -99   -99  
    5.       0.137 0.238 0.411 1.000  -99.  1.41 0.550  27.1  48.8 -99.0   0.0  5.80-99.00 23.00-99.00
   15.       0.137 0.238 0.411 1.000  -99.  1.41 0.550  27.1  48.8 -99.0   0.0  5.80-99.00 23.00-99.00
   22.       0.137 0.238 0.411 1.000  -99.  1.41 0.550  27.1  48.8 -99.0   0.0  5.80-99.00 23.00-99.00
   37.       0.205 0.311 0.437 0.500  -99.  1.43 0.310  46.4  37.0 -99.0 0.110  6.50-99.00 36.00-99.00
   51.       0.205 0.311 0.437 0.500  -99.  1.43 0.310  46.4  37.0 -99.0 0.110  6.50-99.00 36.00-99.00
   66.       0.205 0.311 0.437 0.500  -99.  1.43 0.310  46.4  37.0 -99.0 0.110  6.50-99.00 36.00-99.00
   76.       0.202 0.306 0.436 0.100  -99.  1.44 0.200  45.6  38.5 -99.0 0.070  7.10-99.00 32.00-99.00
   86.       0.202 0.306 0.436 0.100  -99.  1.44 0.200  45.6  38.5 -99.0 0.070  7.10-99.00 32.00-99.00
  100.       0.182 0.284 0.428 0.000  -99.  1.45 0.040  40.0  43.9 -99.0 0.010  8.10-99.00 28.00-99.00
                    
    5.-99.00 -99.0 -99.0 -99.0 -99.0 -99.0 -99.0 -99.0 -99.0 -99.0-99.00 -99.0 -99.0 -99.0 -99.0 -99.0  -99.
   15.-99.00 -99.0 -99.0 -99.0 -99.0 -99.0 -99.0 -99.0 -99.0 -99.0-99.00 -99.0 -99.0 -99.0 -99.0 -99.0  -99.
   22.-99.00 -99.0 -99.0 -99.0 -99.0 -99.0 -99.0 -99.0 -99.0 -99.0-99.00 -99.0 -99.0 -99.0 -99.0 -99.0  -99.
   37.-99.00 -99.0 -99.0 -99.0 -99.0 -99.0 -99.0 -99.0 -99.0 -99.0-99.00 -99.0 -99.0 -99.0 -99.0 -99.0  -99.
   51.-99.00 -99.0 -99.0 -99.0 -99.0 -99.0 -99.0 -99.0 -99.0 -99.0-99.00 -99.0 -99.0 -99.0 -99.0 -99.0  -99.
   66.-99.00 -99.0 -99.0 -99.0 -99.0 -99.0 -99.0 -99.0 -99.0 -99.0-99.00 -99.0 -99.0 -99.0 -99.0 -99.0  -99.
   76.-99.00 -99.0 -99.0 -99.0 -99.0 -99.0 -99.0 -99.0 -99.0 -99.0-99.00 -99.0 -99.0 -99.0 -99.0 -99.0  -99.
   86.-99.00 -99.0 -99.0 -99.0 -99.0 -99.0 -99.0 -99.0 -99.0 -99.0-99.00 -99.0 -99.0 -99.0 -99.0 -99.0  -99.
  100.-99.00 -99.0 -99.0 -99.0 -99.0 -99.0 -99.0 -99.0 -99.0 -99.0-99.00 -99.0 -99.0 -99.0 -99.0 -99.0  -99.
                    
    5.-99.00-99.00-99.00-99.00
   15.-99.00-99.00-99.00-99.00
   22.-99.00-99.00-99.00-99.00
   37.-99.00-99.00-99.00-99.00
   51.-99.00-99.00-99.00-99.00
   66.-99.00-99.00-99.00-99.00
   76.-99.00-99.00-99.00-99.00
   86.-99.00-99.00-99.00-99.00
  100.-99.00-99.00-99.00-99.00
*CULTIVAR           
UY0372 CLARGO UY        IB0001  310.0 0.000 750.0 800.0  8.50 38.90
