*MODEL INPUT FILE            B     1     1     1   999     0
*FILES              
MODEL          CRGRO046
FILEX          UYSB1062.SNX                                                                                 
FILEA          UYSB1062.SNA                                                                                 
FILET          UYSB1062.SNT                                                                                 
SPECIES        SBGRO046.SPE                                                                                 
ECOTYPE        SBGRO046.ECO                                                                                 
CULTIVAR       SBGRO046.CUL                                                                                 
PESTS          SBGRO046.PST C:\DSSAT46\PEST\                                                                
SOILS          UY.SOL                                                                                       
WEATHER        UYTA0001.WTH                                                                                 
OUTPUT         OVERVIEW
*SIMULATION CONTROL 
                  11     1     S 2000313  2150 15102000                 
                   Y     Y     Y     N     N     N     N     N     M
                   M     M     E     R     S     C     R     1     G     S     2     D
                   R     A     N     N     M
                   N     Y     Y     1     Y     N     Y     Y     N     N     Y     N     N
!AUTOMATIC MANAGEM  
               1966289 1966289   40.  100.   30.   40.   10.
                 30.   50.  100. GS000 IR001  10.0 0.800
                 30.   50.   25. FE001 GS000
                100.     1   20.
                     0 2000289  100.    0.
*EXP.DETAILS        
  1UYSB1062 SN late to create DSS                                          
*TREATMENTS         
  1 1 1 0 UYSB                     
*CULTIVARS          
   SB UY0141 GM 4 URUGUAY    
*FIELDS             
   UYTA     UYTA0001   0.0  -99.   -99  -99. 100.0   -99 CL     -99. UYSS3P2304
         -99.00000       -99.00000    -99.00               1.0  100.   1.0 -99.0           0
*INITIAL CONDITIONS 
   SB    2000315     0     0  1.00  1.00   0.0     0  0.00  0.00  100.    0.
      5. 0.195  1.50  5.00
     15. 0.195  1.50  5.00
     26. 0.195  1.50  5.00
     41. 0.235  1.50  1.90
     56. 0.235  1.50  1.90
     73. 0.320  1.50   0.0
     91. 0.320  1.50   0.0
    108. 0.272  1.50   0.0
    125. 0.272  1.50   0.0
    137. 0.193  1.50   0.0
*PLANTING DETAILS   
   2000316     -99   7.0   7.0     S     R   15.  -99.   2.5  -99.  -99. -99.0 -99.0 -99.0
*IRRIGATION         
   1.000    0.    0.    0. GS000 IR001   0.0
*FERTILIZERS        
*RESIDUES           
*CHEMICALS          
*TILLAGE            
*ENVIRONMENT        
*HARVEST            
*SOIL               
 UYSS3P2304         UYID CL     -99.  P23-04    SNIA CLAY LOAM CANADA NIETO DEGRADED -5
 UYID        URUG        -34.000 -57.000 UYID                                              
 UY     0.12  10.0  0.25    1.  1.00  1.00 -99.0 -99.0 -99.0 -99  
    5.       0.157 0.286 0.429 1.000 0.260  1.32 1.680  32.1  38.5 -99.0 0.280  5.50  4.70 30.70-99.00
   15.       0.157 0.286 0.429 1.000 0.260  1.32 1.680  32.1  38.5 -99.0 0.280  5.50  4.70 30.70-99.00
   26.       0.157 0.286 0.429 1.000 0.260  1.32 1.680  32.1  38.5 -99.0 0.280  5.50  4.70 30.70-99.00
   41.       0.199 0.320 0.441 0.400 0.100  1.38 0.960  45.0  31.4 -99.0 0.210  5.90  4.60 36.20-99.00
   56.       0.199 0.320 0.441 0.400 0.100  1.38 0.960  45.0  31.4 -99.0 0.210  5.90  4.60 36.20-99.00
   73.       0.217 0.320 0.441 0.100 .0800  1.42 0.400  50.0  30.0 -99.0 0.120  7.70  6.60 39.70-99.00
   91.       0.217 0.320 0.441 0.100 .0800  1.42 0.400  50.0  30.0 -99.0 0.120  7.70  6.60 39.70-99.00
  108.       0.172 0.272 0.423 0.100 0.140  1.47 0.140  40.0  31.7 -99.0 0.070  7.90  6.80 31.10-99.00
  125.       0.172 0.272 0.423 0.100 0.140  1.47 0.140  40.0  31.7 -99.0 0.070  7.90  6.80 31.10-99.00
  137.       0.099 0.193 0.395 0.000 0.870  1.49 0.050  21.4  33.2 -99.0 0.060  7.80  6.60 32.60-99.00
                    
    5.  0.00   0.0   0.0 -99.0 -99.0 -99.0 -99.0 -99.0   0.0 -99.0  1.10   2.2   0.3 -99.0 -99.0  23.0  -99.
   15.  0.00   0.0   0.0 -99.0 -99.0 -99.0 -99.0 -99.0   0.0 -99.0  1.10   2.2   0.3 -99.0 -99.0  23.0  -99.
   26.  0.00   0.0   0.0 -99.0 -99.0 -99.0 -99.0 -99.0   0.0 -99.0  1.10   2.2   0.3 -99.0 -99.0  23.0  -99.
   41.  0.00   0.0   0.0 -99.0 -99.0 -99.0 -99.0 -99.0   0.0 -99.0  0.60   2.8   0.5 -99.0 -99.0  29.8  -99.
   56.  0.00   0.0   0.0 -99.0 -99.0 -99.0 -99.0 -99.0   0.0 -99.0  0.60   2.8   0.5 -99.0 -99.0  29.8  -99.
   73.  0.00   0.0   0.0 -99.0 -99.0 -99.0 -99.0 -99.0   0.0 -99.0  0.80   3.8   0.6 -99.0 -99.0  34.5  -99.
   91.  0.00   0.0   0.0 -99.0 -99.0 -99.0 -99.0 -99.0   0.0 -99.0  0.80   3.8   0.6 -99.0 -99.0  34.5  -99.
  108.  0.00   0.0   0.0 -99.0 -99.0 -99.0 -99.0 -99.0   0.0 -99.0  0.60   1.6   0.6 -99.0 -99.0  28.3  -99.
  125.  0.00   0.0   0.0 -99.0 -99.0 -99.0 -99.0 -99.0   0.0 -99.0  0.60   1.6   0.6 -99.0 -99.0  28.3  -99.
  137.  0.00   0.0   0.0 -99.0 -99.0 -99.0 -99.0 -99.0   0.0 -99.0  0.50   2.3   0.6 -99.0 -99.0  29.2  -99.
                    
    5.-99.00-99.00-99.00-99.00
   15.-99.00-99.00-99.00-99.00
   26.-99.00-99.00-99.00-99.00
   41.-99.00-99.00-99.00-99.00
   56.-99.00-99.00-99.00-99.00
   73.-99.00-99.00-99.00-99.00
   91.-99.00-99.00-99.00-99.00
  108.-99.00-99.00-99.00-99.00
  125.-99.00-99.00-99.00-99.00
  137.-99.00-99.00-99.00-99.00
*CULTIVAR           
UY0141 GM 4 URUGUAY     INDETE 13.39 0.294 20.80  7.00 18.00 36.00 24.00 1.030 375.0 180.0  1.00 0.200 26.00  1.70 10.00  77.0 0.405 0.205
