*MODEL INPUT FILE            B     1     1     1   999     0
*FILES              
MODEL          CRGRO046
FILEX          UYSB0849.SNX                                                                                 
FILEA          UYSB0849.SNA                                                                                 
FILET          UYSB0849.SNT                                                                                 
SPECIES        SBGRO046.SPE                                                                                 
ECOTYPE        SBGRO046.ECO                                                                                 
CULTIVAR       SBGRO046.CUL                                                                                 
PESTS          SBGRO046.PST C:\DSSAT46\PEST\                                                                
SOILS          UY.SOL                                                                                       
WEATHER        UYTA9001.WTH                                                                                 
OUTPUT         OVERVIEW
*SIMULATION CONTROL 
                   3     1     S 1990282  2150 15102000                 
                   Y     Y     Y     N     N     N     N     N     M
                   M     M     E     R     S     C     R     1     G     S     2     D
                   R     A     N     N     M
                   N     Y     Y     1     Y     N     Y     Y     N     N     Y     N     N
!AUTOMATIC MANAGEM  
               1966289 1966289   40.  100.   30.   40.   10.
                 30.   50.  100. GS000 IR001  10.0 0.800
                 30.   50.   25. FE001 GS000
                100.     1   20.
                     0 2000289  100.    0.
*EXP.DETAILS        
  1UYSB0849 SN late to create DSS                                          
*TREATMENTS         
  1 1 1 0 UYSB                     
*CULTIVARS          
   SB UY0141 GM 4 URUGUAY    
*FIELDS             
   UYTA     UYTA9001   0.0  -99.   -99  -99. 100.0   -99 -99    -99. UYSS0N2002
         -99.00000       -99.00000    -99.00               1.0  100.   1.0 -99.0           0
*INITIAL CONDITIONS 
   SB    1990284     0     0  1.00  1.00   0.0     0  0.00  0.00  100.    0.
      5. 0.282  1.50  5.00
     15. 0.282  1.50  5.00
     30. 0.282  1.50  5.00
     41. 0.262  1.50  4.60
     53. 0.262  1.50  4.60
     63. 0.287  1.50   0.0
     74. 0.287  1.50   0.0
     84. 0.287  1.50   0.0
    110. 0.275  1.50   0.0
    125. 0.312  1.50   0.0
*PLANTING DETAILS   
   1990285     -99   7.0   7.0     S     R   15.  -99.   2.5  -99.  -99. -99.0 -99.0 -99.0
*IRRIGATION         
   1.000    0.    0.    0. GS000 IR001   0.0
*FERTILIZERS        
*RESIDUES           
*CHEMICALS          
*TILLAGE            
*ENVIRONMENT        
*HARVEST            
*SOIL               
 UYSS0N2002         UYID -99    -99.  N20-02    SNIA CLAY RISSO DEEP                   
 UYID        URUG        -34.000 -57.000 UYID                                              
 UY     0.12  10.0  0.25    1.  1.00  1.00 -99.0 -99.0 -99.0 -99  
    5.       0.215 0.440 0.484 1.000 0.120  1.05 4.640  43.0  32.0  32.0 0.360  0.40  7.00  6.30 44.00
   15.       0.215 0.440 0.484 1.000 0.120  1.05 4.640  43.0  32.0  32.0 0.360  0.40  7.00  6.30 44.00
   30.       0.215 0.440 0.484 1.000 0.120  1.05 4.640  43.0  32.0  32.0 0.360  0.40  7.00  6.30 44.00
   41.       0.219 0.365 0.457 0.400 .0900  1.22 2.740  47.0  31.0 -99.0 0.190  6.80  5.60 48.10-99.00
   53.       0.219 0.365 0.457 0.400 .0900  1.22 2.740  47.0  31.0 -99.0 0.190  6.80  5.60 48.10-99.00
   63.       0.215 0.287 0.429 0.100 .0600  1.38 1.070  50.0  24.0 -99.0 0.100  7.30  6.10 44.00-99.00
   74.       0.215 0.287 0.429 0.100 .0600  1.38 1.070  50.0  24.0 -99.0 0.100  7.30  6.10 44.00-99.00
   84.       0.215 0.287 0.429 0.100 .0600  1.38 1.070  50.0  24.0 -99.0 0.100  7.30  6.10 44.00-99.00
  110.       0.214 0.275 0.424 0.100 .0700  1.41 0.710  50.0  26.0 -99.0 0.080  7.80  6.80 39.90-99.00
  125.       0.209 0.312 0.438 0.000 .0800  1.44 0.350  49.0  28.0 -99.0 0.070  8.00  6.90 39.10-99.00
                    
    5.  0.00   0.0   0.0 -99.0 -99.0 -99.0 -99.0 -99.0   0.0 -99.0  1.50   3.3   0.5 -99.0 -99.0  38.7  -99.
   15.  0.00   0.0   0.0 -99.0 -99.0 -99.0 -99.0 -99.0   0.0 -99.0  1.50   3.3   0.5 -99.0 -99.0  38.7  -99.
   30.  0.00   0.0   0.0 -99.0 -99.0 -99.0 -99.0 -99.0   0.0 -99.0  1.50   3.3   0.5 -99.0 -99.0  38.7  -99.
   41.  0.00   0.0   0.0 -99.0 -99.0 -99.0 -99.0 -99.0   0.0 -99.0  0.60   3.5   0.5 -99.0 -99.0  43.3  -99.
   53.  0.00   0.0   0.0 -99.0 -99.0 -99.0 -99.0 -99.0   0.0 -99.0  0.60   3.5   0.5 -99.0 -99.0  43.3  -99.
   63.  0.00   0.0   0.0 -99.0 -99.0 -99.0 -99.0 -99.0   0.0 -99.0  0.70   5.5   0.7 -99.0 -99.0  37.1  -99.
   74.  0.00   0.0   0.0 -99.0 -99.0 -99.0 -99.0 -99.0   0.0 -99.0  0.70   5.5   0.7 -99.0 -99.0  37.1  -99.
   84.  0.00   0.0   0.0 -99.0 -99.0 -99.0 -99.0 -99.0   0.0 -99.0  0.70   5.5   0.7 -99.0 -99.0  37.1  -99.
  110.  0.00   0.0   0.0 -99.0 -99.0 -99.0 -99.0 -99.0   0.0 -99.0  0.60   5.8   0.8 -99.0 -99.0  32.7  -99.
  125.  0.00   0.0   0.0 -99.0 -99.0 -99.0 -99.0 -99.0   0.0 -99.0  0.60   6.1   0.8 -99.0 -99.0  31.6  -99.
                    
    5.-99.00-99.00-99.00-99.00
   15.-99.00-99.00-99.00-99.00
   30.-99.00-99.00-99.00-99.00
   41.-99.00-99.00-99.00-99.00
   53.-99.00-99.00-99.00-99.00
   63.-99.00-99.00-99.00-99.00
   74.-99.00-99.00-99.00-99.00
   84.-99.00-99.00-99.00-99.00
  110.-99.00-99.00-99.00-99.00
  125.-99.00-99.00-99.00-99.00
*CULTIVAR           
UY0141 GM 4 URUGUAY     INDETE 13.39 0.294 20.80  7.00 18.00 36.00 24.00 1.030 375.0 180.0  1.00 0.200 26.00  1.70 10.00  77.0 0.405 0.205
