*MODEL INPUT FILE            B     1     1     1   999     0
*FILES              
MODEL          CRGRO046
FILEX          UYSB1074.SNX                                                                                 
FILEA          UYSB1074.SNA                                                                                 
FILET          UYSB1074.SNT                                                                                 
SPECIES        SBGRO046.SPE                                                                                 
ECOTYPE        SBGRO046.ECO                                                                                 
CULTIVAR       SBGRO046.CUL                                                                                 
PESTS          SBGRO046.PST C:\DSSAT46\PEST\                                                                
SOILS          UY.SOL                                                                                       
WEATHER        UYTA9001.WTH                                                                                 
OUTPUT         OVERVIEW
*SIMULATION CONTROL 
                  21     1     S 1990346  2150 15102000                 
                   Y     Y     Y     N     N     N     N     N     M
                   M     M     E     R     S     C     R     1     G     S     2     D
                   R     A     N     N     M
                   N     Y     Y     1     Y     N     Y     Y     N     N     Y     N     N
!AUTOMATIC MANAGEM  
               1966289 1966289   40.  100.   30.   40.   10.
                 30.   50.  100. GS000 IR001  10.0 0.800
                 30.   50.   25. FE001 GS000
                100.     1   20.
                     0 2000289  100.    0.
*EXP.DETAILS        
  1UYSB1074 SN late to create DSS                                          
*TREATMENTS         
  1 1 1 0 UYSB                     
*CULTIVARS          
   SB UY0141 GM 4 URUGUAY    
*FIELDS             
   UYTA     UYTA9001   0.0  -99.   -99  -99. 100.0   -99 CL     -99. UYSN1J6O17
         -99.00000       -99.00000    -99.00               1.0  100.   1.0 -99.0           0
*INITIAL CONDITIONS 
   SB    1990348     0     0  1.00  1.00   0.0     0  0.00  0.00  100.    0.
      5. 0.219  1.50  5.00
     15. 0.219  1.50  5.00
     18. 0.219  1.50  5.00
     32. 0.222  1.50  5.00
     42. 0.342  1.50   0.0
     56. 0.307  1.50   0.0
     70. 0.307  1.50   0.0
*PLANTING DETAILS   
   1990349     -99   7.0   7.0     S     R   15.  -99.   2.5  -99.  -99. -99.0 -99.0 -99.0
*IRRIGATION         
   1.000    0.    0.    0. GS000 IR001   0.0
*FERTILIZERS        
*RESIDUES           
*CHEMICALS          
*TILLAGE            
*ENVIRONMENT        
*HARVEST            
*SOIL               
 UYSN1J6O17         UYID CL     -99.        YOUNG_Brun_E_Ti_Fr_C_Natural SHALLOW       
 UYID        URUG        -34.000 -57.000 UYID                                              
 -99    0.12  10.0  0.25    1.  1.00  1.00 -99   -99   -99   -99  
    5.       0.167 0.343 0.449 1.000  -99.  1.19 3.250  34.3  26.8 -99.0 0.300  6.40-99.00 28.00-99.00
   15.       0.167 0.343 0.449 1.000  -99.  1.19 3.250  34.3  26.8 -99.0 0.300  6.40-99.00 28.00-99.00
   18.       0.167 0.343 0.449 1.000  -99.  1.19 3.250  34.3  26.8 -99.0 0.300  6.40-99.00 28.00-99.00
   32.       0.175 0.334 0.446 0.500  -99.  1.26 2.580  37.8  24.3 -99.0 0.230  6.40-99.00 29.00-99.00
   42.       0.213 0.342 0.449 0.000  -99.  1.35 1.570  50.5  14.8 -99.0 0.140  6.70-99.00 35.00-99.00
   56.       0.189 0.307 0.436 0.000  -99.  1.41 0.940  44.5  23.1 -99.0 0.090  7.00-99.00 34.00-99.00
   70.       0.189 0.307 0.436 0.000  -99.  1.41 0.940  44.5  23.1 -99.0 0.090  7.00-99.00 34.00-99.00
                    
    5.-99.00 -99.0 -99.0 -99.0 -99.0 -99.0 -99.0 -99.0 -99.0 -99.0-99.00 -99.0 -99.0 -99.0 -99.0 -99.0  -99.
   15.-99.00 -99.0 -99.0 -99.0 -99.0 -99.0 -99.0 -99.0 -99.0 -99.0-99.00 -99.0 -99.0 -99.0 -99.0 -99.0  -99.
   18.-99.00 -99.0 -99.0 -99.0 -99.0 -99.0 -99.0 -99.0 -99.0 -99.0-99.00 -99.0 -99.0 -99.0 -99.0 -99.0  -99.
   32.-99.00 -99.0 -99.0 -99.0 -99.0 -99.0 -99.0 -99.0 -99.0 -99.0-99.00 -99.0 -99.0 -99.0 -99.0 -99.0  -99.
   42.-99.00 -99.0 -99.0 -99.0 -99.0 -99.0 -99.0 -99.0 -99.0 -99.0-99.00 -99.0 -99.0 -99.0 -99.0 -99.0  -99.
   56.-99.00 -99.0 -99.0 -99.0 -99.0 -99.0 -99.0 -99.0 -99.0 -99.0-99.00 -99.0 -99.0 -99.0 -99.0 -99.0  -99.
   70.-99.00 -99.0 -99.0 -99.0 -99.0 -99.0 -99.0 -99.0 -99.0 -99.0-99.00 -99.0 -99.0 -99.0 -99.0 -99.0  -99.
                    
    5.-99.00-99.00-99.00-99.00
   15.-99.00-99.00-99.00-99.00
   18.-99.00-99.00-99.00-99.00
   32.-99.00-99.00-99.00-99.00
   42.-99.00-99.00-99.00-99.00
   56.-99.00-99.00-99.00-99.00
   70.-99.00-99.00-99.00-99.00
*CULTIVAR           
UY0141 GM 4 URUGUAY     INDETE 13.39 0.294 20.80  7.00 18.00 36.00 24.00 1.030 375.0 180.0  1.00 0.200 26.00  1.70 10.00  77.0 0.405 0.205
