*MODEL INPUT FILE            B     1     1     1   999     0
*FILES              
MODEL          MZCER046
FILEX          UYMZ0855.SNX                                                                                 
FILEA          UYMZ0855.SNA                                                                                 
FILET          UYMZ0855.SNT                                                                                 
SPECIES        MZCER046.SPE                                                                                 
ECOTYPE        MZCER046.ECO                                                                                 
CULTIVAR       MZCER046.CUL                                                                                 
PESTS          MZCER046.PST C:\DSSAT46\PEST\                                                                
SOILS          UY.SOL                                                                                       
WEATHER        UYTA0001.WTH                                                                                 
OUTPUT         OVERVIEW
*SIMULATION CONTROL 
                  11     1     S 2000288  2150 15102000                 
                   Y     Y     N     N     N     N     N     N     M
                   M     M     E     R     S     C     R     1     G     S     2     D
                   R     A     D     N     M
                   N     Y     Y     1     Y     N     Y     Y     N     N     Y     N     N
!AUTOMATIC MANAGEM  
               1966289 1966289   40.  100.   30.   40.   10.
                 30.   50.  100. GS000 IR001  10.0 0.800
                 30.   50.   25. FE001 GS000
                100.     1   20.
                     0 2000289  100.    0.
*EXP.DETAILS        
  1UYMZ0855 SN late to create DSS                                          
*TREATMENTS         
  1 1 1 0 UYMZ                     
*CULTIVARS          
   MZ UY0370 CMEDIO UY       
*FIELDS             
   UYTA     UYTA0001   0.0  -99.   -99  -99. 100.0   -99 C      -99. UYSN2N2002
         -99.00000       -99.00000    -99.00               1.0  100.   1.0 -99.0           0
*INITIAL CONDITIONS 
   MZ    2000290     0     0  1.00  1.00   0.0     0  0.00  0.00  100.    0.
      5. 0.262  1.50  15.0
     15. 0.262  1.50  15.0
     30. 0.262  1.50  15.0
     41. 0.250  1.50  8.50
     53. 0.250  1.50  8.50
     63. 0.275  1.50   0.0
     74. 0.275  1.50   0.0
     84. 0.275  1.50   0.0
    110. 0.267  1.50   0.0
    125. 0.309  1.50   0.0
*PLANTING DETAILS   
   2000291     -99   7.0   7.0     S     R   15.  -99.   2.5  -99.  -99. -99.0 -99.0 -99.0
*IRRIGATION         
   1.000    0.    0.    0. GS000 IR001   0.0
*FERTILIZERS        
         1 FE001 AP001    5.    1.  -99.  -99.  -99.  -99.   -99
         2 FE001 AP001    5.    3.  -99.  -99.  -99.  -99.   -99
*RESIDUES           
*CHEMICALS          
*TILLAGE            
*ENVIRONMENT        
*HARVEST            
*SOIL               
 UYSN2N2002  UYID        C      -99. N20-02    SNIA CLAY RISSO DEEP DEGRADADO -25% SOC 
 UYID        URUG        -34.000 -57.000 UYID                                              
 UY     0.12  10.0  0.25    1.  1.00  1.00 -99.0 -99.0 -99.0 -99  
    5.       0.208 0.388 0.465 1.000 0.120  1.15 3.480  43.0  32.0  32.0 0.360  0.40  7.00  6.30 44.00
   15.       0.208 0.388 0.465 1.000 0.120  1.15 3.480  43.0  32.0  32.0 0.360  0.40  7.00  6.30 44.00
   30.       0.208 0.388 0.465 1.000 0.120  1.15 3.480  43.0  32.0  32.0 0.360  0.40  7.00  6.30 44.00
   41.       0.214 0.334 0.446 0.400 .0900  1.28 2.060  47.0  31.0 -99.0 0.190  6.80  5.60 48.10-99.00
   53.       0.214 0.334 0.446 0.400 .0900  1.28 2.060  47.0  31.0 -99.0 0.190  6.80  5.60 48.10-99.00
   63.       0.213 0.275 0.425 0.100 .0600  1.41 0.800  50.0  24.0 -99.0 0.100  7.30  6.10 44.00-99.00
   74.       0.213 0.275 0.425 0.100 .0600  1.41 0.800  50.0  24.0 -99.0 0.100  7.30  6.10 44.00-99.00
   84.       0.213 0.275 0.425 0.100 .0600  1.41 0.800  50.0  24.0 -99.0 0.100  7.30  6.10 44.00-99.00
  110.       0.213 0.267 0.421 0.000 .0700  1.43 0.530  50.0  26.0 -99.0 0.080  7.80  6.80 39.90-99.00
  125.       0.209 0.309 0.437 0.000 .0800  1.45 0.260  49.0  28.0 -99.0 0.070  8.00  6.90 39.10-99.00
                    
    5.  0.00   0.0   0.0 -99.0 -99.0 -99.0 -99.0 -99.0   0.0 -99.0  1.50   3.3   0.5 -99.0 -99.0  38.7  -99.
   15.  0.00   0.0   0.0 -99.0 -99.0 -99.0 -99.0 -99.0   0.0 -99.0  1.50   3.3   0.5 -99.0 -99.0  38.7  -99.
   30.  0.00   0.0   0.0 -99.0 -99.0 -99.0 -99.0 -99.0   0.0 -99.0  1.50   3.3   0.5 -99.0 -99.0  38.7  -99.
   41.  0.00   0.0   0.0 -99.0 -99.0 -99.0 -99.0 -99.0   0.0 -99.0  0.60   3.5   0.5 -99.0 -99.0  43.3  -99.
   53.  0.00   0.0   0.0 -99.0 -99.0 -99.0 -99.0 -99.0   0.0 -99.0  0.60   3.5   0.5 -99.0 -99.0  43.3  -99.
   63.  0.00   0.0   0.0 -99.0 -99.0 -99.0 -99.0 -99.0   0.0 -99.0  0.70   5.5   0.7 -99.0 -99.0  37.1  -99.
   74.  0.00   0.0   0.0 -99.0 -99.0 -99.0 -99.0 -99.0   0.0 -99.0  0.70   5.5   0.7 -99.0 -99.0  37.1  -99.
   84.  0.00   0.0   0.0 -99.0 -99.0 -99.0 -99.0 -99.0   0.0 -99.0  0.70   5.5   0.7 -99.0 -99.0  37.1  -99.
  110.  0.00   0.0   0.0 -99.0 -99.0 -99.0 -99.0 -99.0   0.0 -99.0  0.60   5.8   0.8 -99.0 -99.0  32.7  -99.
  125.  0.00   0.0   0.0 -99.0 -99.0 -99.0 -99.0 -99.0   0.0 -99.0  0.60   6.1   0.8 -99.0 -99.0  31.6  -99.
                    
    5.-99.00-99.00-99.00-99.00
   15.-99.00-99.00-99.00-99.00
   30.-99.00-99.00-99.00-99.00
   41.-99.00-99.00-99.00-99.00
   53.-99.00-99.00-99.00-99.00
   63.-99.00-99.00-99.00-99.00
   74.-99.00-99.00-99.00-99.00
   84.-99.00-99.00-99.00-99.00
  110.-99.00-99.00-99.00-99.00
  125.-99.00-99.00-99.00-99.00
*CULTIVAR           
UY0370 CMEDIO UY        IB0001  280.0 0.000 750.0 800.0  8.50 38.90
